
**** 08/30/19 16:47:27 ****** PSpice 17.2.0 (March 2016) ****** ID# 0 ********

 ** Profile: "SCHEMATIC1-JEDL_Project_1"  [ h:\00_fall_2019\jedl\project1\pspice\jedl_project_1-pspicefiles\schematic1\jedl_project_1


 ****     CIRCUIT DESCRIPTION


******************************************************************************




** Creating circuit file "JEDL_Project_1.cir" 
** WARNING: THIS AUTOMATICALLY GENERATED FILE MAY BE OVERWRITTEN BY SUBSEQUENT SIMULATIONS

*Libraries: 
* Profile Libraries :
* Local Libraries :
* From [PSPICE NETLIST] section of C:\Users\o167m805\cdssetup\OrCAD_PSpice\17.2.0\PSpice.ini file:
.lib "nom.lib" 

*Analysis directives: 
.TRAN  0 0.02 0 0.0001 SKIPBP 
.OPTIONS ADVCONV
.PROBE64 V(alias(*)) I(alias(*)) W(alias(*)) D(alias(*)) NOISE(alias(*)) 
.INC "..\SCHEMATIC1.net" 



**** INCLUDING SCHEMATIC1.net ****
* source JEDL_PROJECT_1
V_V2         N00125 N00357  
+SIN 0 12.6 120Hz 0 0 0
D_D1         0 N00125 Dbreak 
D_D2         0 N00357 Dbreak 
D_D3         N00125 N00207 Dbreak 
D_D4         N00357 N00207 Dbreak 
C_Filtering         Capacitor 0 N00207  100u  TC=0,0 
X_U1         N03577 N03570 N03891 N04064 N04095 0 0 N03884 N00207 N00207 N03521
+  LM723
C_Frequency         Compensation 0 N03521  1n  TC=0,0 
R_Current         Sense Resistor N03570 N03577  1k TC=0,0 
----------------------------------------$
ERROR(ORPSIM-16152): Invalid number: Error while converting token 'N03577' to double value. Token can be a constant or expression
R_RS         N03891 N03884  1k TC=0,0 
R_RZ         0 N03891  1k TC=0,0 
R_Load         0 N03884  1k TC=0,0 
R_Between         Vref and NI N04095 N04064  1k TC=0,0 
------------------------------$
ERROR(ORPSIM-16152): Invalid number: Error while converting token 'N04095' to double value. Token can be a constant or expression

**** RESUMING JEDL_Project_1.cir ****
.END
