
**** 09/05/19 11:11:22 ****** PSpice 17.2.0 (March 2016) ****** ID# 0 ********

 ** Profile: "SCHEMATIC1-JEDL_Project_1"  [ H:\00_Fall_2019\JEDL\Project1\PSpice\jedl_project_1-pspicefiles\schematic1\jedl_project_1


 ****     CIRCUIT DESCRIPTION


******************************************************************************




** Creating circuit file "JEDL_Project_1.cir" 
** WARNING: THIS AUTOMATICALLY GENERATED FILE MAY BE OVERWRITTEN BY SUBSEQUENT SIMULATIONS

*Libraries: 
* Profile Libraries :
* Local Libraries :
.LIB "../../../jedl_project_1-pspicefiles/jedl_project_1.lib" 
* From [PSPICE NETLIST] section of C:\Users\o167m805\cdssetup\OrCAD_PSpice\17.2.0\PSpice.ini file:
.lib "nom.lib" 

*Analysis directives: 
.TRAN  0 0.6 0 0.0001 SKIPBP 
.OPTIONS ADVCONV
.PROBE64 V(alias(*)) I(alias(*)) W(alias(*)) D(alias(*)) NOISE(alias(*)) 
.INC "..\SCHEMATIC1.net" 



**** INCLUDING SCHEMATIC1.net ****
* source JEDL_PROJECT_1
V_V2         N00351 N00357  
+SIN 0 28 120Hz 0 0 0
D_D1         0 N00351 Dbreak 
D_D2         0 N00357 Dbreak 
D_D3         N00351 N00579 Dbreak 
D_D4         N00357 N00579 Dbreak 
C_Filtering_Capacitor         0 N00579  1000u  TC=0,0 
X_U1         N03577 N12796 N03891 N19929 N20337 0 0 N03971 N00579 N00579 N03521
+  LM723
C_Frequency_Compensation         N03891 N03521  1u  TC=0,0 
R_Current_Sense_Resistor         N12796 N03577  1 TC=0,0 
R_RF_Pot         N03891 N03971  8.87 TC=0,0 
R_RI         0 N03891  3.3k TC=0,0 
R_R1         N20337 N19754  2400 TC=0,0 
V_V3         N19929 N19754 4
I_I1         N03971 0 DC 10mAdc  

**** RESUMING JEDL_Project_1.cir ****
.END

**** 09/05/19 11:11:22 ****** PSpice 17.2.0 (March 2016) ****** ID# 0 ********

 ** Profile: "SCHEMATIC1-JEDL_Project_1"  [ H:\00_Fall_2019\JEDL\Project1\PSpice\jedl_project_1-pspicefiles\schematic1\jedl_project_1


 ****     Diode MODEL PARAMETERS


******************************************************************************




               Dbreak          X_U1.Dz         
          IS   10.000000E-15   50.000000E-15 
          BV                    5.79         
         IBV                   50.000000E-09 
          RS     .1             4            
         CJO  100.000000E-15                 


**** 09/05/19 11:11:22 ****** PSpice 17.2.0 (March 2016) ****** ID# 0 ********

 ** Profile: "SCHEMATIC1-JEDL_Project_1"  [ H:\00_Fall_2019\JEDL\Project1\PSpice\jedl_project_1-pspicefiles\schematic1\jedl_project_1


 ****     BJT MODEL PARAMETERS


******************************************************************************




               X_U1.Npn1       
               NPN             
       LEVEL    1            
          IS   10.000000E-15 
          BF   55            
          NF    1            
          BR    1            
          NR    1            
         ISS    0            
          RE    0            
          RC    0            
         CJE    0            
         VJE     .75         
         CJC    0            
         VJC     .75         
         MJC     .33         
        XCJC    1            
         CJS    0            
         VJS     .75         
          KF    0            
          AF    1            
          CN    2.42         
           D     .87         



          JOB CONCLUDED

**** 09/05/19 11:11:22 ****** PSpice 17.2.0 (March 2016) ****** ID# 0 ********

 ** Profile: "SCHEMATIC1-JEDL_Project_1"  [ H:\00_Fall_2019\JEDL\Project1\PSpice\jedl_project_1-pspicefiles\schematic1\jedl_project_1


 ****     JOB STATISTICS SUMMARY


******************************************************************************



  License check-out time            =        5.83
  Total job time (using Solver 1)   =         .63
