
**** 08/29/19 17:46:39 ****** PSpice 17.2.0 (March 2016) ****** ID# 0 ********

 ** Profile: "SCHEMATIC1-JEDL_Project_1"  [ H:\00_Fall_2019\JEDL\Project1\PSpice\JEDL_Project_1-PSpiceFiles\SCHEMATIC1\JEDL_Project_1


 ****     CIRCUIT DESCRIPTION


******************************************************************************




** Creating circuit file "JEDL_Project_1.cir" 
** WARNING: THIS AUTOMATICALLY GENERATED FILE MAY BE OVERWRITTEN BY SUBSEQUENT SIMULATIONS

*Libraries: 
* Profile Libraries :
* Local Libraries :
* From [PSPICE NETLIST] section of C:\Users\o167m805\cdssetup\OrCAD_PSpice\17.2.0\PSpice.ini file:
.lib "nom.lib" 

*Analysis directives: 
.TRAN  0 9.02 9 0.0001 SKIPBP 
.OPTIONS ADVCONV
.PROBE64 V(alias(*)) I(alias(*)) W(alias(*)) D(alias(*)) NOISE(alias(*)) 
.INC "..\SCHEMATIC1.net" 



**** INCLUDING SCHEMATIC1.net ****
* source JEDL_PROJECT_1
V_V2         N00125 N00357  
+SIN 0 12.6 120Hz 0 0 0
D_D1         0 N00125 Dbreak 
D_D2         0 N00357 Dbreak 
D_D3         N00125 N00207 Dbreak 
D_D4         N00357 N00207 Dbreak 
C_C1         0 N00207  1000u  TC=0,0 
R_R1         0 N00207  1k TC=0,0 

**** RESUMING JEDL_Project_1.cir ****
.END

**** 08/29/19 17:46:39 ****** PSpice 17.2.0 (March 2016) ****** ID# 0 ********

 ** Profile: "SCHEMATIC1-JEDL_Project_1"  [ H:\00_Fall_2019\JEDL\Project1\PSpice\JEDL_Project_1-PSpiceFiles\SCHEMATIC1\JEDL_Project_1


 ****     Diode MODEL PARAMETERS


******************************************************************************




               Dbreak          
          IS   10.000000E-15 
          RS     .1          
         CJO  100.000000E-15 



          JOB CONCLUDED

**** 08/29/19 17:46:39 ****** PSpice 17.2.0 (March 2016) ****** ID# 0 ********

 ** Profile: "SCHEMATIC1-JEDL_Project_1"  [ H:\00_Fall_2019\JEDL\Project1\PSpice\JEDL_Project_1-PSpiceFiles\SCHEMATIC1\JEDL_Project_1


 ****     JOB STATISTICS SUMMARY


******************************************************************************



  License check-out time            =       99.92
  Total job time (using Solver 1)   =         .44
